Version 4
SHEET 1 1632 680
WIRE 144 16 144 -16
WIRE 144 32 144 16
WIRE 400 160 320 160
WIRE 352 272 352 224
WIRE 256 288 -208 288
WIRE 400 288 400 160
WIRE -208 352 -208 288
WIRE 256 352 -80 352
WIRE 464 352 400 352
WIRE 352 416 352 368
WIRE -80 448 -80 352
WIRE 464 464 464 352
WIRE 544 464 464 464
WIRE 640 464 544 464
FLAG 352 224 vdd
FLAG 352 416 0
FLAG 144 32 0
FLAG 144 -96 vdd
FLAG -208 288 a
FLAG -80 352 b
FLAG 720 -16 0
FLAG 720 -96 sel
FLAG 320 160 0
FLAG 400 320 o1
FLAG 544 464 cout
FLAG -80 528 0
FLAG -208 432 0
FLAG 144 16 vss
SYMBOL /voltage 144 -112 R0
SYMATTR InstName V1
SYMATTR Value 1.8
SYMBOL /voltage 720 -112 R0
SYMATTR InstName Vsel
SYMATTR Value 1.8
SYMBOL add1b 336 320 R0
SYMATTR InstName X1
SYMATTR SpiceLine wn={nnw} wp={nnw*mp} ll={ll}
SYMBOL /voltage -208 336 R0
SYMATTR InstName V2
SYMATTR Value {vv}
SYMBOL /voltage -80 432 R0
WINDOW 123 0 0 Left 0
WINDOW 39 0 0 Left 0
SYMATTR InstName V3
SYMATTR Value PULSE(0 {vv} 10p 1p 1p 2n 4n 3)
TEXT -160 -184 Left 2 !.param vv=1.8 nnw=180n mp=2.5 ll=180n\n.lib BU_180nm.lib\n.op\n.tran 4200p
TEXT 968 -112 Left 2 !.param voh=vv*0.9 vol=vv*0.1\n.meas tran t1 find time when v(out)={vol} rise 1\n.meas tran t2 find time when v(out)={voh} rise 1\n.meas tran t3 find time when v(out)={vol} fall 1\n.meas tran t4 find time when v(out)={voh} fall 1\n.meas tran uptime param abs(t2-t1)\n.meas tran downtime param abs(t4-t3)\n.meas tran upslope param abs({voh}-{vol})/abs(t2-t1)\n.meas tran downslope param abs({voh}-{vol})/abs(t4-t3)\n.meas tran ratio param upslope/downslope
