Version 4
SHEET 1 880 680
WIRE 144 16 144 -16
WIRE 144 48 144 16
WIRE 400 160 320 160
WIRE 400 208 400 160
WIRE 432 208 432 176
WIRE -32 224 -256 224
WIRE 384 224 -32 224
WIRE 384 256 208 256
WIRE 208 288 208 256
WIRE 384 288 208 288
WIRE 544 288 480 288
WIRE 624 288 544 288
WIRE 208 304 208 288
WIRE 544 320 480 320
WIRE 624 320 544 320
WIRE 784 320 752 320
WIRE 816 320 784 320
WIRE 208 352 -32 352
WIRE 384 352 208 352
WIRE 544 352 480 352
WIRE 624 352 544 352
WIRE -32 384 -32 352
WIRE 208 384 208 352
WIRE 384 384 208 384
WIRE 384 416 208 416
WIRE 432 464 432 432
WIRE 464 464 464 432
WIRE 544 464 464 464
WIRE 640 464 544 464
FLAG 784 320 out
FLAG 432 176 vdd
FLAG 432 464 0
FLAG 144 48 0
FLAG 144 -96 vdd
FLAG -32 224 a
FLAG -32 352 b
FLAG 720 -16 0
FLAG 720 -96 sel
FLAG 320 160 0
FLAG 544 352 o3
FLAG 544 320 o2
FLAG 544 288 o1
FLAG 544 464 cout
FLAG 144 16 vss
FLAG 208 304 0
FLAG -32 464 0
FLAG -256 304 0
FLAG 208 416 0
SYMBOL Bin2Dec 688 320 R0
SYMATTR InstName U1
SYMATTR SpiceLine Vhigh={vv}
SYMBOL /voltage 144 -112 R0
SYMATTR InstName V1
SYMATTR Value 1.8
SYMBOL /voltage 720 -112 R0
SYMATTR InstName Vsel
SYMATTR Value 1.8
SYMBOL add3b 432 320 R0
SYMATTR InstName X1
SYMATTR SpiceLine ll={ll} wn={nnw} wp={nnw*mp}
SYMBOL /voltage -32 368 R0
SYMATTR InstName V2
SYMATTR Value {vv}
SYMBOL /voltage -256 208 R0
WINDOW 123 0 0 Left 0
WINDOW 39 0 0 Left 0
SYMATTR InstName V3
SYMATTR Value PULSE(0 {vv} 10p 1p 1p 2n 4n 3)
TEXT -160 -184 Left 2 !.param vv=1.8 nnw=180n mp=1 ll=180n\n.lib BU_180nm.lib\n.op\n.tran 4200p
