Version 4
SHEET 1 3040 1476
WIRE 544 288 528 288
WIRE 624 288 608 288
WIRE 704 288 688 288
WIRE 800 288 784 288
WIRE 1040 288 1024 288
WIRE 800 336 800 288
WIRE 976 336 800 336
WIRE 976 368 976 336
WIRE 544 384 544 288
WIRE 880 384 544 384
WIRE 1040 384 1040 288
WIRE 1040 384 1024 384
WIRE 1104 416 1024 416
WIRE 560 448 560 288
WIRE 880 448 560 448
WIRE 1040 448 1024 448
WIRE 816 480 816 288
WIRE 976 480 976 464
WIRE 976 480 816 480
WIRE 800 496 800 336
WIRE 976 496 800 496
WIRE 976 528 976 496
WIRE 624 544 624 288
WIRE 880 544 624 544
WIRE 1040 544 1040 448
WIRE 1040 544 1024 544
WIRE 1104 576 1024 576
WIRE 640 608 640 288
WIRE 880 608 640 608
WIRE 1040 608 1024 608
WIRE 816 640 816 480
WIRE 976 640 976 624
WIRE 976 640 816 640
WIRE 800 656 800 496
WIRE 976 656 800 656
WIRE 976 688 976 656
WIRE 704 704 704 288
WIRE 880 704 704 704
WIRE 1040 704 1040 608
WIRE 1040 704 1024 704
WIRE 1104 736 1024 736
WIRE 720 768 720 288
WIRE 880 768 720 768
WIRE 1104 768 1024 768
WIRE 816 800 816 640
WIRE 976 800 976 784
WIRE 976 800 816 800
WIRE 544 848 544 384
WIRE 560 848 560 448
WIRE 576 848 560 848
WIRE 624 848 624 544
WIRE 640 848 640 608
WIRE 656 848 640 848
WIRE 704 848 704 704
WIRE 720 848 720 768
WIRE 736 848 720 848
WIRE 800 848 800 656
WIRE 816 848 816 800
WIRE 832 848 816 848
FLAG 1104 768 cout
FLAG 1104 416 o1
FLAG 1104 576 o2
FLAG 1104 736 o3
FLAG 528 288 a1
FLAG 576 848 b1
FLAG 608 288 a2
FLAG 656 848 b2
FLAG 688 288 a3
FLAG 736 848 b3
FLAG 832 848 vss
FLAG 784 288 vdd
FLAG 1024 288 cin
SYMBOL add1b 960 416 R0
SYMATTR InstName X1
SYMATTR SpiceLine ll={ll} wn={nnw} wp={nnw*mp}
SYMBOL add1b 960 576 R0
SYMATTR InstName X2
SYMATTR SpiceLine ll={ll} wn={nnw} wp={nnw*mp}
SYMBOL add1b 960 736 R0
SYMATTR InstName X3
SYMATTR SpiceLine ll={ll} wn={nnw} wp={nnw*mp}
