Version 4
SHEET 1 900 680
WIRE -32 64 -48 64
WIRE 32 64 16 64
WIRE 80 64 64 64
WIRE 240 128 224 128
WIRE 16 144 16 64
WIRE 208 144 16 144
WIRE 368 160 368 32
WIRE 368 160 272 160
WIRE 64 176 64 64
WIRE 208 176 64 176
WIRE 528 176 512 176
WIRE 240 192 224 192
WIRE 368 192 368 160
WIRE 496 192 368 192
WIRE 720 208 560 208
WIRE 432 224 432 96
WIRE 496 224 432 224
WIRE 528 240 512 240
WIRE 240 256 224 256
WIRE 16 272 16 144
WIRE 208 272 16 272
WIRE 400 288 400 64
WIRE 400 288 272 288
WIRE 528 288 512 288
WIRE 64 304 64 176
WIRE 208 304 64 304
WIRE 400 304 400 288
WIRE 496 304 400 304
WIRE 240 320 224 320
WIRE 720 320 560 320
WIRE -32 336 -32 64
WIRE 496 336 -32 336
WIRE 400 352 400 304
WIRE 400 352 160 352
WIRE 528 352 512 352
WIRE 240 368 224 368
WIRE 160 384 160 352
WIRE 208 384 160 384
WIRE -32 416 -32 336
WIRE 208 416 -32 416
WIRE 16 432 16 272
WIRE 64 432 64 304
WIRE 240 432 224 432
WIRE 368 432 368 192
WIRE 400 432 400 352
WIRE 432 432 432 224
FLAG 32 64 A
FLAG 80 64 B
FLAG -48 64 Cin
FLAG 224 128 vss
FLAG 224 192 vdd
FLAG 224 368 vss
FLAG 224 432 vdd
FLAG 224 256 vss
FLAG 224 320 vdd
FLAG 512 176 vss
FLAG 512 240 vdd
FLAG 512 288 vss
FLAG 512 352 vdd
FLAG 720 320 S
FLAG 720 208 Cout
SYMBOL nand 240 160 R0
SYMATTR InstName X1
SYMBOL nand 240 400 R0
SYMATTR InstName X2
SYMBOL xor 240 288 R0
SYMATTR InstName X3
SYMBOL nand 528 208 R0
SYMATTR InstName X4
SYMBOL xor 528 320 R0
SYMATTR InstName X5
TEXT 368 32 Left 2 ;T1: NAND(A,B)
TEXT 400 64 Left 2 ;D: XOR(A,B)
TEXT 432 96 Left 2 ;T2: NAND(D,Cin)
TEXT 720 232 Left 2 ;NAND(T1,T2)
TEXT 720 344 Left 2 ;XOR(D,Cin)
