Version 4
SHEET 1 884 1124
WIRE -672 272 -688 272
WIRE -592 272 -608 272
WIRE -512 272 -528 272
WIRE -400 272 -416 272
WIRE -400 336 -400 272
WIRE -304 336 -400 336
WIRE -288 336 -304 336
WIRE -672 352 -672 272
WIRE -336 352 -672 352
WIRE -288 352 -288 336
WIRE -224 352 -288 352
WIRE -240 368 -272 368
WIRE -144 368 -192 368
WIRE -656 384 -656 272
WIRE -336 384 -656 384
WIRE -224 384 -288 384
WIRE -384 400 -384 272
WIRE -304 400 -384 400
WIRE -288 400 -288 384
WIRE -288 400 -304 400
WIRE -400 464 -400 336
WIRE -304 464 -400 464
WIRE -288 464 -304 464
WIRE -592 480 -592 272
WIRE -336 480 -592 480
WIRE -288 480 -288 464
WIRE -224 480 -288 480
WIRE -240 496 -272 496
WIRE -144 496 -192 496
WIRE -576 512 -576 272
WIRE -336 512 -576 512
WIRE -224 512 -288 512
WIRE -384 528 -384 400
WIRE -304 528 -384 528
WIRE -288 528 -288 512
WIRE -288 528 -304 528
WIRE -400 576 -400 464
WIRE -304 576 -400 576
WIRE -288 576 -304 576
WIRE -512 592 -512 272
WIRE -336 592 -512 592
WIRE -288 592 -288 576
WIRE -224 592 -288 592
WIRE -240 608 -272 608
WIRE -144 608 -192 608
WIRE -496 624 -496 272
WIRE -336 624 -496 624
WIRE -224 624 -288 624
WIRE -384 640 -384 528
WIRE -304 640 -384 640
WIRE -288 640 -288 624
WIRE -288 640 -304 640
WIRE -672 704 -672 352
WIRE -656 704 -656 384
WIRE -640 704 -656 704
WIRE -592 704 -592 480
WIRE -576 704 -576 512
WIRE -560 704 -576 704
WIRE -512 704 -512 592
WIRE -496 704 -496 624
WIRE -480 704 -496 704
WIRE -400 704 -400 576
WIRE -384 704 -384 640
WIRE -368 704 -384 704
FLAG -368 704 vdd
FLAG -144 368 o1
FLAG -144 496 o2
FLAG -144 608 o3
FLAG -688 272 a1
FLAG -640 704 b1
FLAG -416 272 vss
FLAG -608 272 a2
FLAG -560 704 b2
FLAG -528 272 a3
FLAG -480 704 b3
SYMBOL nand -304 368 R0
SYMATTR InstName X1
SYMBOL nand -304 496 R0
SYMATTR InstName X2
SYMBOL nand -304 608 R0
SYMATTR InstName X3
SYMBOL inv -224 368 R0
SYMATTR InstName X4
SYMBOL inv -224 496 R0
SYMATTR InstName X5
SYMBOL inv -224 608 R0
SYMATTR InstName X6
