Version 4
SHEET 1 884 1124
WIRE -304 336 -352 336
WIRE -288 336 -304 336
WIRE -336 352 -432 352
WIRE -288 352 -288 336
WIRE -224 352 -288 352
WIRE -240 368 -272 368
WIRE -144 368 -192 368
WIRE -336 384 -432 384
WIRE -224 384 -288 384
WIRE -304 400 -352 400
WIRE -288 400 -288 384
WIRE -288 400 -304 400
WIRE -304 464 -352 464
WIRE -288 464 -304 464
WIRE -336 480 -432 480
WIRE -288 480 -288 464
WIRE -224 480 -288 480
WIRE -240 496 -272 496
WIRE -144 496 -192 496
WIRE -336 512 -432 512
WIRE -224 512 -288 512
WIRE -304 528 -352 528
WIRE -288 528 -288 512
WIRE -288 528 -304 528
WIRE -304 576 -352 576
WIRE -288 576 -304 576
WIRE -336 592 -432 592
WIRE -288 592 -288 576
WIRE -224 592 -288 592
WIRE -240 608 -272 608
WIRE -144 608 -192 608
WIRE -336 624 -432 624
WIRE -224 624 -288 624
WIRE -304 640 -352 640
WIRE -288 640 -288 624
WIRE -288 640 -304 640
FLAG -144 368 o1
FLAG -144 496 o2
FLAG -144 608 o3
FLAG -432 352 a1
FLAG -432 384 b1
FLAG -432 480 a2
FLAG -432 512 b2
FLAG -432 592 a3
FLAG -432 624 b3
FLAG -352 400 vss
FLAG -352 528 vss
FLAG -352 640 vss
FLAG -352 336 vdd
FLAG -352 464 vdd
FLAG -352 576 vdd
SYMBOL nand -304 368 R0
SYMATTR InstName X1
SYMATTR SpiceLine wn={nnw} wp={nnw*mp} ll={ll}
SYMBOL nand -304 496 R0
SYMATTR InstName X2
SYMATTR SpiceLine wn={nnw} wp={nnw*mp} ll={ll}
SYMBOL nand -304 608 R0
SYMATTR InstName X3
SYMATTR SpiceLine wn={nnw} wp={nnw*mp} ll={ll}
SYMBOL inv -224 368 R0
SYMATTR InstName X4
SYMATTR SpiceLine wn={nnw} wp={nnw*mp} ll={ll}
SYMBOL inv -224 496 R0
SYMATTR InstName X5
SYMATTR SpiceLine wn={nnw} wp={nnw*mp} ll={ll}
SYMBOL inv -224 608 R0
SYMATTR InstName X6
SYMATTR SpiceLine wn={nnw} wp={nnw*mp} ll={ll}
