Version 4
SHEET 1 880 1060
WIRE -816 -192 -832 -192
WIRE -784 -192 -800 -192
WIRE -736 -192 -752 -192
WIRE -640 -192 -656 -192
WIRE -560 -160 -576 -160
WIRE -656 -112 -656 -192
WIRE -528 -112 -656 -112
WIRE -384 -112 -528 -112
WIRE -528 -96 -528 -112
WIRE -816 -80 -816 -192
WIRE -560 -80 -816 -80
WIRE -656 -64 -656 -112
WIRE -624 -64 -656 -64
WIRE -416 -64 -496 -64
WIRE -752 -48 -752 -192
WIRE -640 -48 -752 -48
WIRE -576 -48 -576 -160
WIRE -576 -48 -592 -48
WIRE -560 -48 -576 -48
WIRE -384 -48 -384 -112
WIRE -672 -32 -672 -192
WIRE -624 -32 -672 -32
WIRE -416 -32 -416 -64
WIRE -672 -16 -672 -32
WIRE -528 -16 -528 -32
WIRE -528 -16 -672 -16
WIRE -272 -16 -352 -16
WIRE -656 16 -656 -64
WIRE -528 16 -656 16
WIRE -800 32 -800 -192
WIRE -560 32 -800 32
WIRE -416 48 -416 0
WIRE -416 48 -496 48
WIRE -752 64 -752 -48
WIRE -560 64 -752 64
WIRE -672 96 -672 -16
WIRE -528 96 -528 80
WIRE -528 96 -672 96
WIRE -384 96 -384 16
WIRE -384 96 -528 96
WIRE -816 144 -816 -80
WIRE -800 144 -800 32
WIRE -752 144 -752 64
WIRE -672 144 -672 96
WIRE -672 144 -688 144
WIRE -656 144 -656 16
FLAG -272 -16 o
FLAG -736 -192 sel
FLAG -784 -192 b
FLAG -832 -192 a
FLAG -688 144 vss
FLAG -640 -192 vdd
SYMBOL inv -624 -48 R0
SYMATTR InstName X1
SYMBOL nand -528 -64 R0
SYMATTR InstName X2
SYMBOL nand -528 48 R0
SYMATTR InstName X3
SYMBOL nand -384 -16 R0
SYMATTR InstName X4
TEXT -560 -160 Left 2 ;NOT(sel)
