Version 4
SHEET 1 928 964
WIRE -368 -16 -384 -16
WIRE -288 -16 -304 -16
WIRE -208 -16 -224 -16
WIRE 80 -16 48 -16
WIRE 496 -16 272 -16
WIRE 624 -16 608 -16
WIRE 688 -16 672 -16
WIRE 752 -16 736 -16
WIRE 816 -16 800 -16
WIRE 80 80 80 -16
WIRE 112 80 80 80
WIRE -368 112 -368 -16
WIRE -80 112 -368 112
WIRE 112 112 -80 112
WIRE 320 112 272 112
WIRE 496 112 496 -16
WIRE 496 112 432 112
WIRE -352 144 -352 -16
WIRE -96 144 -352 144
WIRE 112 144 -96 144
WIRE 288 144 272 144
WIRE 320 144 304 144
WIRE 608 144 608 -16
WIRE 608 144 432 144
WIRE 16 160 -48 160
WIRE 48 160 16 160
WIRE -80 176 -80 112
WIRE 16 176 16 160
WIRE 0 192 -16 192
WIRE 304 192 304 144
WIRE 304 192 48 192
WIRE -96 208 -96 144
WIRE -80 208 -96 208
WIRE 16 224 16 208
WIRE 16 224 -48 224
WIRE 48 224 16 224
WIRE 288 240 288 144
WIRE 288 240 96 240
WIRE 96 288 96 240
WIRE 112 288 96 288
WIRE -288 320 -288 -16
WIRE -80 320 -288 320
WIRE 112 320 -80 320
WIRE 320 320 272 320
WIRE 496 320 496 112
WIRE 496 320 432 320
WIRE -272 352 -272 -16
WIRE -96 352 -272 352
WIRE 112 352 -96 352
WIRE 288 352 272 352
WIRE 320 352 304 352
WIRE 672 352 672 -16
WIRE 672 352 432 352
WIRE 16 368 -48 368
WIRE 48 368 16 368
WIRE -80 384 -80 320
WIRE 16 384 16 368
WIRE 0 400 -16 400
WIRE 304 400 304 352
WIRE 304 400 48 400
WIRE -96 416 -96 352
WIRE -80 416 -96 416
WIRE 16 432 16 416
WIRE 16 432 -48 432
WIRE 48 432 16 432
WIRE 288 464 288 352
WIRE 288 464 96 464
WIRE 96 512 96 464
WIRE 112 512 96 512
WIRE -208 544 -208 -16
WIRE -80 544 -208 544
WIRE 112 544 -80 544
WIRE 320 544 272 544
WIRE 496 544 496 320
WIRE 496 544 432 544
WIRE -192 576 -192 -16
WIRE -96 576 -192 576
WIRE 112 576 -96 576
WIRE 288 576 272 576
WIRE 320 576 304 576
WIRE 736 576 736 -16
WIRE 736 576 432 576
WIRE 16 592 -48 592
WIRE 48 592 16 592
WIRE 496 592 496 544
WIRE 608 592 608 144
WIRE 672 592 672 352
WIRE -80 608 -80 544
WIRE 16 608 16 592
WIRE 0 624 -16 624
WIRE 304 624 304 576
WIRE 304 624 48 624
WIRE -96 640 -96 576
WIRE -80 640 -96 640
WIRE 16 656 16 640
WIRE 16 656 -48 656
WIRE 48 656 16 656
WIRE 288 656 288 576
WIRE 800 656 800 -16
WIRE 800 656 288 656
WIRE -368 736 -368 112
WIRE -352 736 -352 144
WIRE -336 736 -352 736
WIRE -288 736 -288 320
WIRE -272 736 -272 352
WIRE -256 736 -272 736
WIRE -208 736 -208 544
WIRE -192 736 -192 576
WIRE -176 736 -192 736
FLAG -384 -16 a0
FLAG -304 -16 a1
FLAG -224 -16 a2
FLAG -336 736 b0
FLAG -256 736 b1
FLAG -176 736 b2
FLAG 48 592 vss
FLAG 48 656 vdd
FLAG 48 160 vss
FLAG 48 224 vdd
FLAG 48 368 vss
FLAG 48 432 vdd
FLAG 48 -16 c_in
FLAG 272 -16 sel
FLAG 624 -16 s0
FLAG 688 -16 s1
FLAG 752 -16 s2
FLAG 816 -16 c_out
SYMBOL add1b 192 96 R0
SYMATTR InstName X1
SYMBOL add1b 192 304 R0
SYMATTR InstName X2
SYMBOL add1b 192 528 R0
SYMATTR InstName X3
SYMBOL nand -48 624 R0
SYMATTR InstName X4
SYMBOL inv 16 624 R0
SYMATTR InstName X5
SYMBOL nand -48 192 R0
SYMATTR InstName X6
SYMBOL inv 16 192 R0
SYMATTR InstName X7
SYMBOL nand -48 400 R0
SYMATTR InstName X8
SYMBOL inv 16 400 R0
SYMATTR InstName X9
SYMBOL mux2x1 368 128 R0
SYMATTR InstName X10
SYMBOL mux2x1 368 336 R0
SYMATTR InstName X11
SYMBOL mux2x1 368 560 R0
SYMATTR InstName X12
