Version 4
SHEET 1 880 1060
WIRE -816 -192 -832 -192
WIRE -784 -192 -800 -192
WIRE -736 -192 -752 -192
WIRE -640 -192 -656 -192
WIRE -576 -160 -592 -160
WIRE -656 -112 -656 -192
WIRE -544 -112 -656 -112
WIRE -400 -112 -544 -112
WIRE -544 -96 -544 -112
WIRE -816 -80 -816 -192
WIRE -576 -80 -816 -80
WIRE -656 -64 -656 -112
WIRE -624 -64 -656 -64
WIRE -432 -64 -512 -64
WIRE -752 -48 -752 -192
WIRE -640 -48 -752 -48
WIRE -592 -48 -592 -160
WIRE -576 -48 -592 -48
WIRE -400 -48 -400 -112
WIRE -672 -32 -672 -192
WIRE -624 -32 -672 -32
WIRE -432 -32 -432 -64
WIRE -672 -16 -672 -32
WIRE -544 -16 -544 -32
WIRE -544 -16 -672 -16
WIRE -288 -16 -368 -16
WIRE -656 16 -656 -64
WIRE -544 16 -656 16
WIRE -800 32 -800 -192
WIRE -576 32 -800 32
WIRE -432 48 -432 0
WIRE -432 48 -512 48
WIRE -752 64 -752 -48
WIRE -576 64 -752 64
WIRE -672 96 -672 -16
WIRE -544 96 -544 80
WIRE -544 96 -672 96
WIRE -400 96 -400 16
WIRE -400 96 -544 96
WIRE -816 144 -816 -80
WIRE -800 144 -800 32
WIRE -752 144 -752 64
WIRE -672 144 -672 96
WIRE -672 144 -688 144
WIRE -656 144 -656 16
FLAG -288 -16 o
FLAG -736 -192 sel
FLAG -784 -192 b
FLAG -832 -192 a
FLAG -640 -192 vss
FLAG -688 144 vdd
SYMBOL inv -624 -48 R0
SYMATTR InstName X1
SYMBOL nand -544 -64 R0
SYMATTR InstName X2
SYMBOL nand -544 48 R0
SYMATTR InstName X3
SYMBOL nand -400 -16 R0
SYMATTR InstName X4
TEXT -576 -160 Left 2 ;NOT(sel)
