Version 4
SHEET 1 880 1060
WIRE -752 -144 -768 -144
WIRE -688 -144 -704 -144
WIRE -640 -144 -656 -144
WIRE -608 -144 -624 -144
WIRE -496 -96 -528 -96
WIRE -752 -80 -752 -144
WIRE -528 -80 -752 -80
WIRE -384 -64 -464 -64
WIRE -608 -48 -608 -144
WIRE -528 -48 -608 -48
WIRE -352 -48 -352 -64
WIRE -496 -32 -528 -32
WIRE -384 -32 -384 -64
WIRE -176 -16 -320 -16
WIRE -496 16 -528 16
WIRE -688 32 -688 -144
WIRE -528 32 -688 32
WIRE -352 32 -352 16
WIRE -384 48 -384 0
WIRE -384 48 -464 48
WIRE -640 64 -640 -144
WIRE -528 64 -640 64
WIRE -608 80 -608 -48
WIRE -496 80 -528 80
WIRE -640 144 -640 64
WIRE -608 144 -608 128
WIRE -608 144 -640 144
WIRE -624 160 -624 112
WIRE -592 160 -592 112
FLAG -624 160 vss
FLAG -592 160 vdd
FLAG -176 -16 out
FLAG -656 -144 s
FLAG -704 -144 b
FLAG -768 -144 a
FLAG -528 16 vss
FLAG -528 -96 vss
FLAG -528 80 vdd
FLAG -528 -32 vdd
FLAG -352 -64 vss
FLAG -352 32 vdd
SYMBOL inv -608 112 R270
SYMATTR InstName X1
SYMBOL nand -496 -64 R0
SYMATTR InstName X2
SYMBOL nand -496 48 R0
SYMATTR InstName X3
SYMBOL nand -352 -16 R0
SYMATTR InstName X4
TEXT -624 -144 Right 2 ;_s
