Version 4
SHEET 1 880 1060
WIRE -512 -112 -528 -112
WIRE -528 -96 -528 -112
WIRE -560 -80 -736 -80
WIRE -608 -64 -640 -64
WIRE -416 -64 -496 -64
WIRE -368 -64 -384 -64
WIRE -768 -48 -784 -48
WIRE -624 -48 -768 -48
WIRE -560 -48 -576 -48
WIRE -384 -48 -384 -64
WIRE -608 -32 -640 -32
WIRE -416 -32 -416 -64
WIRE -528 -16 -528 -32
WIRE -512 -16 -528 -16
WIRE -272 -16 -352 -16
WIRE -528 16 -544 16
WIRE -560 32 -736 32
WIRE -384 32 -384 16
WIRE -368 32 -384 32
WIRE -416 48 -416 0
WIRE -416 48 -496 48
WIRE -768 64 -768 -48
WIRE -560 64 -768 64
WIRE -528 80 -544 80
FLAG -272 -16 o
FLAG -784 -48 sel
FLAG -736 32 b
FLAG -736 -80 a
FLAG -640 -64 vdd
FLAG -512 -112 vdd
FLAG -544 16 vdd
FLAG -368 -64 vdd
FLAG -544 80 vss
FLAG -368 32 vss
FLAG -512 -16 vss
FLAG -640 -32 vss
SYMBOL inv -608 -48 M180
SYMATTR InstName X1
SYMATTR SpiceLine wn={nnw} wp={nnw*mp} ll={ll} nnw={nnw} mp={mp}
SYMBOL nand -528 -64 M180
SYMATTR InstName X2
SYMATTR SpiceLine wn={nnw} wp={nnw*mp} ll={ll} nnw={nnw} mp={mp}
SYMBOL nand -528 48 M180
SYMATTR InstName X3
SYMATTR SpiceLine wn={nnw} wp={nnw*mp} ll={ll} nnw={nnw} mp={mp}
SYMBOL nand -384 -16 M180
SYMATTR InstName X4
SYMATTR SpiceLine wn={nnw} wp={nnw*mp} ll={ll} nnw={nnw} mp={mp}
