Version 4
SHEET 1 2148 1032
WIRE 480 208 464 208
WIRE 560 208 544 208
WIRE 640 208 624 208
WIRE 752 208 736 208
WIRE 976 208 960 208
WIRE 752 336 752 208
WIRE 880 336 752 336
WIRE 880 368 880 336
WIRE 480 384 480 208
WIRE 816 384 480 384
WIRE 976 384 976 208
WIRE 976 384 928 384
WIRE 496 416 496 208
WIRE 816 416 496 416
WIRE 1024 416 928 416
WIRE 768 448 768 208
WIRE 880 448 880 432
WIRE 880 448 768 448
WIRE 752 464 752 336
WIRE 880 464 752 464
WIRE 880 496 880 464
WIRE 560 512 560 208
WIRE 816 512 560 512
WIRE 976 512 976 384
WIRE 976 512 928 512
WIRE 576 544 576 208
WIRE 816 544 576 544
WIRE 1024 544 928 544
WIRE 768 576 768 448
WIRE 880 576 880 560
WIRE 880 576 768 576
WIRE 752 592 752 464
WIRE 880 592 752 592
WIRE 880 624 880 592
WIRE 640 640 640 208
WIRE 816 640 640 640
WIRE 976 640 976 512
WIRE 976 640 928 640
WIRE 656 672 656 208
WIRE 816 672 656 672
WIRE 1024 672 928 672
WIRE 768 704 768 576
WIRE 880 704 880 688
WIRE 880 704 768 704
WIRE 480 848 480 384
WIRE 496 848 496 416
WIRE 512 848 496 848
WIRE 560 848 560 512
WIRE 576 848 576 544
WIRE 592 848 576 848
WIRE 640 848 640 640
WIRE 656 848 656 672
WIRE 672 848 656 848
WIRE 752 848 752 592
WIRE 768 848 768 704
WIRE 784 848 768 848
WIRE 976 848 976 640
FLAG 464 208 a1
FLAG 512 848 b1
FLAG 544 208 a2
FLAG 592 848 b2
FLAG 624 208 a3
FLAG 672 848 b3
FLAG 960 208 sel
FLAG 736 208 vss
FLAG 784 848 vdd
FLAG 1024 416 o1
FLAG 1024 544 o2
FLAG 1024 672 o3
SYMBOL mux2x1 864 400 R0
SYMATTR InstName X1
SYMBOL mux2x1 864 528 R0
SYMATTR InstName X2
SYMBOL mux2x1 864 656 R0
SYMATTR InstName X3
