Version 4
SHEET 1 2148 1032
WIRE 480 304 464 304
WIRE 560 304 544 304
WIRE 640 304 624 304
WIRE 752 304 736 304
WIRE 976 304 960 304
WIRE 752 336 752 304
WIRE 880 336 752 336
WIRE 880 368 880 336
WIRE 480 384 480 304
WIRE 816 384 480 384
WIRE 976 384 976 304
WIRE 976 384 928 384
WIRE 496 416 496 304
WIRE 816 416 496 416
WIRE 1024 416 928 416
WIRE 768 448 768 304
WIRE 880 448 880 432
WIRE 880 448 768 448
WIRE 752 464 752 336
WIRE 880 464 752 464
WIRE 880 496 880 464
WIRE 560 512 560 304
WIRE 816 512 560 512
WIRE 976 512 976 384
WIRE 976 512 928 512
WIRE 576 544 576 304
WIRE 816 544 576 544
WIRE 1024 544 928 544
WIRE 768 576 768 448
WIRE 880 576 880 560
WIRE 880 576 768 576
WIRE 752 592 752 464
WIRE 880 592 752 592
WIRE 880 624 880 592
WIRE 640 640 640 304
WIRE 816 640 640 640
WIRE 976 640 976 512
WIRE 976 640 928 640
WIRE 656 672 656 304
WIRE 816 672 656 672
WIRE 1024 672 928 672
WIRE 768 704 768 576
WIRE 880 704 880 688
WIRE 880 704 768 704
WIRE 480 736 480 384
WIRE 496 736 496 416
WIRE 512 736 496 736
WIRE 560 736 560 512
WIRE 576 736 576 544
WIRE 592 736 576 736
WIRE 640 736 640 640
WIRE 656 736 656 672
WIRE 672 736 656 736
WIRE 752 736 752 592
WIRE 768 736 768 704
WIRE 784 736 768 736
WIRE 976 736 976 640
FLAG 464 304 a1
FLAG 512 736 b1
FLAG 544 304 a2
FLAG 592 736 b2
FLAG 624 304 a3
FLAG 672 736 b3
FLAG 960 304 sel
FLAG 784 736 vss
FLAG 736 304 vdd
FLAG 1024 416 o1
FLAG 1024 544 o2
FLAG 1024 672 o3
SYMBOL mux2x1b 864 400 R0
SYMATTR InstName X4
SYMATTR SpiceLine wn={nnw} wp={nnw*mp} ll={ll} nnw={nnw} mp={mp}
SYMBOL mux2x1b 864 528 R0
SYMATTR InstName X5
SYMATTR SpiceLine wn={nnw} wp={nnw*mp} ll={ll} nnw={nnw} mp={mp}
SYMBOL mux2x1b 864 656 R0
SYMATTR InstName X6
SYMATTR SpiceLine wn={nnw} wp={nnw*mp} ll={ll} nnw={nnw} mp={mp}
