Version 4
SHEET 1 1404 680
WIRE 112 224 -16 224
WIRE 256 224 192 224
WIRE 112 320 -16 320
WIRE 256 320 256 224
WIRE 256 320 192 320
WIRE 368 320 256 320
WIRE 112 432 -16 432
WIRE 256 432 256 320
WIRE 256 432 192 432
WIRE 1152 448 1152 400
WIRE 1232 448 1232 400
WIRE 400 464 400 416
WIRE 480 464 480 416
WIRE 560 464 560 416
WIRE 640 464 640 416
WIRE 720 464 720 416
WIRE 800 464 800 416
WIRE 1216 464 1184 464
WIRE 384 480 352 480
WIRE 464 480 432 480
WIRE 544 480 512 480
WIRE 624 480 592 480
WIRE 704 480 672 480
WIRE 784 480 752 480
WIRE 864 480 832 480
WIRE 1152 528 1152 480
WIRE 1232 528 1232 480
WIRE 400 544 400 496
WIRE 480 544 480 496
WIRE 560 544 560 496
WIRE 640 544 640 496
WIRE 720 544 720 496
WIRE 800 544 800 496
FLAG 400 416 vdd
FLAG 352 480 in
FLAG 864 480 out
FLAG 400 544 vss
FLAG 480 416 vdd
FLAG 560 416 vdd
FLAG 640 416 vdd
FLAG 720 416 vdd
FLAG 800 416 vdd
FLAG 480 544 vss
FLAG 560 544 vss
FLAG 640 544 vss
FLAG 720 544 vss
FLAG 800 544 vss
FLAG 1152 528 vss
FLAG 1232 528 vss
FLAG 1152 400 vdd
FLAG 1232 400 vdd
FLAG 1136 464 vss
FLAG 1344 464 vss
SYMBOL /res 208 416 R90
WINDOW 0 0 56 VBottom 2
WINDOW 3 32 56 VTop 2
SYMATTR InstName R1
SYMATTR Value 1
SYMBOL /res 208 208 R90
WINDOW 0 0 56 VBottom 2
WINDOW 3 32 56 VTop 2
SYMATTR InstName R2
SYMATTR Value 1
SYMBOL /res 208 304 R90
WINDOW 0 0 56 VBottom 2
WINDOW 3 32 56 VTop 2
SYMATTR InstName R3
SYMATTR Value 1
SYMBOL inv 400 480 R0
SYMATTR InstName X1
SYMATTR SpiceLine ll=180n wn={nnw} wp={nnw*mp}
SYMBOL inv 480 480 R0
SYMATTR InstName X2
SYMATTR SpiceLine ll=180n wn={nnw*fac} wp={nnw*mp*fac}
SYMBOL inv 560 480 R0
SYMATTR InstName X3
SYMATTR SpiceLine ll=180n wn={nnw*fac*fac} wp={nnw*mp*fac*fac}
SYMBOL inv 640 480 R0
SYMATTR InstName X4
SYMATTR SpiceLine ll=180n wn={nnw*fac*fac*fac} wp={nnw*mp*fac*fac*fac}
SYMBOL inv 720 480 R0
SYMATTR InstName X5
SYMATTR SpiceLine ll=180n wn={nnw*fac*fac*fac*fac} wp={nnw*mp*fac*fac*fac*fac}
SYMBOL inv 800 480 R0
SYMATTR InstName X6
SYMATTR SpiceLine ll=180n wn={nnw*fac*fac*fac*fac*fac} wp={nnw*mp*fac*fac*fac*fac*fac}
SYMBOL inv 1152 464 R0
SYMATTR InstName X7
SYMATTR SpiceLine ll=180n wn={nnw*fac*fac*fac*fac*fac*fac} wp={nnw*mp*fac*fac*fac*fac*fac*fac}
SYMBOL inv 1232 464 R0
SYMATTR InstName X8
SYMATTR SpiceLine ll=180n wn={nnw*fac*fac*fac*fac*fac*fac*fac} wp={nnw*mp*fac*fac*fac*fac*fac*fac*fac}
SYMBOL /res 1360 448 R90
WINDOW 0 0 56 VBottom 2
WINDOW 3 32 56 VTop 2
SYMATTR InstName R4
SYMATTR Value 1
TEXT -40 128 Left 2 !.param wpad=360u fac=3.38\n.lib BU_180nm.lib
