Version 4
SHEET 1 1192 784
WIRE -1472 -1136 -1552 -1136
WIRE -688 -1136 -768 -1136
WIRE -1552 -1120 -1552 -1136
WIRE -768 -1120 -768 -1136
WIRE -1056 -1088 -1152 -1088
WIRE -416 -1088 -496 -1088
WIRE -1472 -1072 -1472 -1136
WIRE -1472 -1072 -1552 -1072
WIRE -1152 -1072 -1152 -1088
WIRE -688 -1072 -688 -1136
WIRE -688 -1072 -768 -1072
WIRE -496 -1072 -496 -1088
WIRE -1600 -1040 -1648 -1040
WIRE -816 -1040 -864 -1040
WIRE -1056 -1024 -1056 -1088
WIRE -1056 -1024 -1152 -1024
WIRE -416 -1024 -416 -1088
WIRE -416 -1024 -496 -1024
WIRE -1648 -992 -1648 -1040
WIRE -1552 -992 -1552 -1024
WIRE -1280 -992 -1552 -992
WIRE -864 -992 -864 -1040
WIRE -768 -992 -768 -1024
WIRE -624 -992 -768 -992
WIRE -1552 -976 -1552 -992
WIRE -768 -976 -768 -992
WIRE -1472 -928 -1552 -928
WIRE -688 -928 -768 -928
WIRE -1152 -912 -1152 -976
WIRE -1056 -912 -1152 -912
WIRE -496 -912 -496 -976
WIRE -416 -912 -496 -912
WIRE -1648 -896 -1648 -992
WIRE -1600 -896 -1648 -896
WIRE -1152 -896 -1152 -912
WIRE -864 -896 -864 -992
WIRE -816 -896 -864 -896
WIRE -496 -896 -496 -912
WIRE -1552 -864 -1552 -880
WIRE -1472 -864 -1472 -928
WIRE -1472 -864 -1552 -864
WIRE -768 -864 -768 -880
WIRE -688 -864 -688 -928
WIRE -688 -864 -768 -864
WIRE -1056 -848 -1056 -912
WIRE -1056 -848 -1152 -848
WIRE -416 -848 -416 -912
WIRE -416 -848 -496 -848
WIRE -1152 -656 -1152 -800
WIRE -496 -656 -496 -800
WIRE -496 -656 -1152 -656
WIRE -1152 -512 -1152 -656
WIRE -608 -512 -688 -512
WIRE -496 -512 -496 -656
WIRE -688 -496 -688 -512
WIRE -1072 -464 -1152 -464
WIRE -416 -464 -496 -464
WIRE -608 -448 -608 -512
WIRE -608 -448 -688 -448
WIRE -736 -416 -784 -416
WIRE -1152 -400 -1152 -416
WIRE -1072 -400 -1072 -464
WIRE -1072 -400 -1152 -400
WIRE -496 -400 -496 -416
WIRE -416 -400 -416 -464
WIRE -416 -400 -496 -400
WIRE -784 -368 -784 -416
WIRE -688 -368 -688 -400
WIRE -624 -368 -688 -368
WIRE -544 -368 -544 -432
WIRE -688 -352 -688 -368
WIRE -1152 -336 -1152 -400
WIRE -608 -304 -688 -304
WIRE -1072 -288 -1152 -288
WIRE -784 -272 -784 -368
WIRE -736 -272 -784 -272
WIRE -688 -240 -688 -256
WIRE -608 -240 -608 -304
WIRE -608 -240 -688 -240
WIRE -1152 -224 -1152 -240
WIRE -1072 -224 -1072 -288
WIRE -1072 -224 -1152 -224
WIRE -1152 -192 -1152 -224
WIRE -608 16 -688 16
WIRE -688 32 -688 16
WIRE 448 64 448 16
WIRE -608 80 -608 16
WIRE -608 80 -688 80
WIRE -496 80 -496 -400
WIRE -736 112 -784 112
WIRE -416 128 -496 128
WIRE -784 160 -784 112
WIRE -688 160 -688 128
WIRE -624 160 -688 160
WIRE -688 176 -688 160
WIRE -496 192 -496 176
WIRE -416 192 -416 128
WIRE -416 192 -496 192
WIRE 256 208 128 208
WIRE 448 208 448 144
WIRE 448 208 336 208
WIRE -608 224 -688 224
WIRE -496 224 -496 192
WIRE -784 256 -784 160
WIRE -736 256 -784 256
WIRE -688 288 -688 272
WIRE -608 288 -608 224
WIRE -608 288 -688 288
WIRE 448 368 448 208
WIRE 624 368 448 368
WIRE 848 368 704 368
WIRE 256 560 128 560
WIRE 448 560 448 368
WIRE 448 560 336 560
WIRE 448 592 448 560
WIRE 448 704 448 672
FLAG 448 704 vss
FLAG 448 16 vdd
FLAG 848 368 Q
FLAG -496 -1168 vdd
FLAG -1152 -1168 vdd
FLAG -496 304 vss
FLAG -1152 -112 vss
FLAG -1552 -1216 vdd
FLAG -1552 -784 vss
FLAG -1728 -992 in1
FLAG -1280 -816 in2
FLAG -768 -1216 vdd
FLAG -768 -784 vss
FLAG -624 -816 in1
FLAG -944 -992 in2
FLAG -1280 -432 in1
FLAG -1280 -256 in2
FLAG -688 -592 vdd
FLAG -688 -160 vss
FLAG -864 -368 in2
FLAG -688 -64 vdd
FLAG -688 368 vss
FLAG -864 160 in1
FLAG -496 -656 Q
SYMBOL /res -512 -1184 R0
SYMATTR InstName R1
SYMATTR Value 1
SYMBOL /res -512 208 R0
SYMATTR InstName R2
SYMATTR Value 1
SYMBOL /res 720 352 R90
WINDOW 0 0 56 VBottom 2
WINDOW 3 32 56 VTop 2
SYMATTR InstName R3
SYMATTR Value 1
SYMBOL /res 352 192 R90
WINDOW 0 0 56 VBottom 2
WINDOW 3 32 56 VTop 2
SYMATTR InstName R4
SYMATTR Value 1
SYMBOL /res 352 544 R90
WINDOW 0 0 56 VBottom 2
WINDOW 3 32 56 VTop 2
SYMATTR InstName R5
SYMATTR Value 1
SYMBOL /res -1168 -1184 R0
SYMATTR InstName R6
SYMATTR Value 1
SYMBOL /res -1168 -208 R0
SYMATTR InstName R7
SYMATTR Value 1
SYMBOL nmos018 -1200 -512 R0
SYMATTR InstName M9
SYMATTR Value2 l={ll} w={wn*2} ad={450n*{wn}} as={450n*{wn}} pd={900n+{wn}} ps={1080n+{wn}}
SYMBOL pmos018 -1200 -1072 R0
SYMATTR InstName M10
SYMATTR Value2 l={ll} w={wp*3} ad={450n*{wp}} as={450n*{wp}} pd={900n+{wp}} ps={1080n+{wp}}
SYMBOL pmos018 -544 -1072 R0
SYMATTR InstName M5
SYMATTR Value2 l={ll} w={wp*3} ad={450n*{wp}} as={450n*{wp}} pd={900n+{wp}} ps={1080n+{wp}}
SYMBOL pmos018 -1200 -896 R0
SYMATTR InstName M6
SYMATTR Value2 l={ll} w={wp*3} ad={450n*{wp}} as={450n*{wp}} pd={900n+{wp}} ps={1080n+{wp}}
SYMBOL pmos018 -544 -896 R0
SYMATTR InstName M7
SYMATTR Value2 l={ll} w={wp1} ad={450n*{wp}} as={450n*{wp}} pd={900n+{wp}} ps={1080n+{wp}}
SYMBOL nmos018 -544 -512 R0
SYMATTR InstName M1
SYMATTR Value2 l={ll} w={wn*3} ad={450n*{wn}} as={450n*{wn}} pd={900n+{wn}} ps={1080n+{wn}}
SYMBOL nmos018 -1200 -336 R0
SYMATTR InstName M2
SYMATTR Value2 l={ll} w={wn*2} ad={450n*{wn}} as={450n*{wn}} pd={900n+{wn}} ps={1080n+{wn}}
SYMBOL nmos018 -544 80 R0
SYMATTR InstName M3
SYMATTR Value2 l={ll} w={wn*3} ad={450n*{wn}} as={450n*{wn}} pd={900n+{wn}} ps={1080n+{wn}}
SYMBOL pmos018 -1600 -1120 R0
SYMATTR InstName M4
SYMATTR Value2 l={ll} w={wp*3} ad={450n*{wp}} as={450n*{wp}} pd={900n+{wp}} ps={1080n+{wp}}
SYMBOL /res -1568 -1232 R0
SYMATTR InstName R8
SYMATTR Value 1
SYMBOL nmos018 -1600 -976 R0
SYMATTR InstName M8
SYMATTR Value2 l={ll} w={wn*3} ad={450n*{wn}} as={450n*{wn}} pd={900n+{wn}} ps={1080n+{wn}}
SYMBOL /res -1568 -880 R0
SYMATTR InstName R9
SYMATTR Value 1
SYMBOL /res -1632 -1008 R90
WINDOW 0 0 56 VBottom 2
WINDOW 3 32 56 VTop 2
SYMATTR InstName R10
SYMATTR Value 1
SYMBOL /res -1184 -832 R90
WINDOW 0 0 56 VBottom 2
WINDOW 3 32 56 VTop 2
SYMATTR InstName R11
SYMATTR Value 1
SYMBOL pmos018 -816 -1120 R0
SYMATTR InstName M11
SYMATTR Value2 l={ll} w={wp*3} ad={450n*{wp}} as={450n*{wp}} pd={900n+{wp}} ps={1080n+{wp}}
SYMBOL /res -784 -1232 R0
SYMATTR InstName R12
SYMATTR Value 1
SYMBOL nmos018 -816 -976 R0
SYMATTR InstName M12
SYMATTR Value2 l={ll} w={wn*3} ad={450n*{wn}} as={450n*{wn}} pd={900n+{wn}} ps={1080n+{wn}}
SYMBOL /res -784 -880 R0
SYMATTR InstName R13
SYMATTR Value 1
SYMBOL /res -848 -1008 R90
WINDOW 0 0 56 VBottom 2
WINDOW 3 32 56 VTop 2
SYMATTR InstName R14
SYMATTR Value 1
SYMBOL /res -528 -832 R90
WINDOW 0 0 56 VBottom 2
WINDOW 3 32 56 VTop 2
SYMATTR InstName R15
SYMATTR Value 1
SYMBOL /res -1184 -448 R90
WINDOW 0 0 56 VBottom 2
WINDOW 3 32 56 VTop 2
SYMATTR InstName R16
SYMATTR Value 1
SYMBOL /res -1184 -272 R90
WINDOW 0 0 56 VBottom 2
WINDOW 3 32 56 VTop 2
SYMATTR InstName R17
SYMATTR Value 1
SYMBOL pmos018 -736 -496 R0
SYMATTR InstName M13
SYMATTR Value2 l={ll} w={wp*2} ad={450n*{wp}} as={450n*{wp}} pd={900n+{wp}} ps={1080n+{wp}}
SYMBOL /res -704 -608 R0
SYMATTR InstName R18
SYMATTR Value 1
SYMBOL nmos018 -736 -352 R0
SYMATTR InstName M14
SYMATTR Value2 l={ll} w={wn*2} ad={450n*{wn}} as={450n*{wn}} pd={900n+{wn}} ps={1080n+{wn}}
SYMBOL /res -704 -256 R0
SYMATTR InstName R19
SYMATTR Value 1
SYMBOL /res -768 -384 R90
WINDOW 0 0 56 VBottom 2
WINDOW 3 32 56 VTop 2
SYMATTR InstName R20
SYMATTR Value 1
SYMBOL pmos018 -736 32 R0
SYMATTR InstName M15
SYMATTR Value2 l={ll} w={wp*3} ad={450n*{wp}} as={450n*{wp}} pd={900n+{wp}} ps={1080n+{wp}}
SYMBOL /res -704 -80 R0
SYMATTR InstName R21
SYMATTR Value 1
SYMBOL nmos018 -736 176 R0
SYMATTR InstName M16
SYMATTR Value2 l={ll} w={wn*3} ad={450n*{wn}} as={450n*{wn}} pd={900n+{wn}} ps={1080n+{wn}}
SYMBOL /res -704 272 R0
SYMATTR InstName R22
SYMATTR Value 1
SYMBOL /res -768 144 R90
WINDOW 0 0 56 VBottom 2
WINDOW 3 32 56 VTop 2
SYMATTR InstName R23
SYMATTR Value 1
SYMBOL /res -1184 -1008 R90
WINDOW 0 0 56 VBottom 2
WINDOW 3 32 56 VTop 2
SYMATTR InstName R24
SYMATTR Value 1
SYMBOL /res -528 -1008 R90
WINDOW 0 0 56 VBottom 2
WINDOW 3 32 56 VTop 2
SYMATTR InstName R25
SYMATTR Value 1
SYMBOL /res -528 -384 R90
WINDOW 0 0 56 VBottom 2
WINDOW 3 32 56 VTop 2
SYMATTR InstName R26
SYMATTR Value 1
SYMBOL /res -528 144 R90
WINDOW 0 0 56 VBottom 2
WINDOW 3 32 56 VTop 2
SYMATTR InstName R27
SYMATTR Value 1
TEXT 96 72 Left 2 !.lib BU_180nm.lib
TEXT 808 56 Left 2 ;Parametres requis: \nll=longueur \nwn=largeur_nmos \nwp=largeur_pmos
TEXT -144 -744 Left 2 !.param wp1={wp*3}
TEXT -384 -832 Left 2 ;wp1
TEXT -144 -768 Left 2 !.param wn1={wn*3}
TEXT -672 -896 Left 2 ;wn1
TEXT -384 -1024 Left 2 ;wp1
TEXT -664 -1072 Left 2 ;wp1
TEXT -144 -688 Left 2 !.param wp2={wp*3}
TEXT -1040 -840 Left 2 ;wp2
